512
17.07669279833913 -8.408097309360998e-05 -8.355179584461e-05 -8.408097309360998e-05 17.076692168618205 -8.347241925725999e-05 -8.355179584461e-05 -8.347241925725999e-05 17.07654436412079
Ag       4.792362552    4.868818140    4.931654764
Ag       7.212254424    7.288668550    7.352621624
Ag       4.789127546    7.785283006    7.845324110
Ag       7.708824449    4.865530812    7.845304856
Ag       7.706356817    7.782813759    4.930587955
Ag       7.210624718    5.364936230    5.427695614
Ag       5.288488430    7.287077170    5.427708025
Ag       5.286726721    5.363174050    7.352975235
Mg      15.847212069   13.794901324   15.984998013
Mg      15.846453285   13.796062854   11.727424289
Mg      15.841487245   13.802976053    7.456039348
Mg      15.847670180   13.796369612    3.168269235
Mg      15.847191121   15.923724889   13.856175630
Mg      15.847377152   15.923891192    9.596128392
Mg      15.841467640   15.917961461    5.308351220
Mg      15.846837347   15.923363011    1.036924024
Mg      13.726717192   13.803213772    5.308276863
Mg      13.718151995   13.794690949   13.855945167
Mg      13.719508286   13.796025035    9.595793146
Mg      13.719607942   13.796139143    1.036969840
Mg      13.718363408   15.923745848   15.984998348
Mg      13.726478195   15.917981739    7.456039906
Mg      13.719531057   15.922979860   11.727424614
Mg      13.719851933   15.924185308    3.168268892
Mg      11.589658077   13.795879922   15.984407613
Mg      11.589694437   13.794214768   11.727135508
Mg      11.606186861   13.802008754    7.456629101
Mg      11.595217987   13.800076840    3.166783349
Mg      11.589836015   15.922986061   13.857328359
Mg      11.595265058   15.920880726    9.597828580
Mg      11.606235938   15.920676271    5.307479179
Mg      11.590003378   15.925558160    1.037473915
Mg       9.490801266   13.818747303    5.305966819
Mg       9.458446314   13.795882950   13.857138989
Mg       9.464007467   13.799453248    9.600753054
Mg       9.460339348   13.799956827    1.033141277
Mg       9.458521920   15.923925585   15.985166787
Mg       9.490795051   15.905920611    7.458466807
Mg       9.460713049   15.920818634   11.732799753
Mg       9.463685538   15.923490594    3.163952139
Mg       7.318576015   13.802987777   15.978484009
Mg       7.319705277   13.801527917   11.742999246
Mg       7.337037013   13.836543678    7.475349461
Mg       7.321350455   13.818395477    3.137957193
Mg       7.318667295   15.917929857   13.863580900
Mg       7.337291502   15.891005511    5.292036282
Mg       7.321709507   15.905497426    9.628502854
Mg       7.319600535   15.920322444    1.021986052
Mg       5.170817339   13.803131410   13.863701386
Mg       5.168655580   13.818367851    9.628759702
Mg       5.153670198   13.834609719    5.291931666
Mg       5.170604286   13.802138828    1.021920637
Mg       5.170949139   15.918057356   15.978569381
Mg       5.170019571   15.920393651   11.743370777
Mg       5.169306845   15.905614341    3.137986591
Mg       5.153821867   15.888845427    7.475616381
Mg       3.030869579   13.796481183   15.985287542
Mg       3.028949536   13.800346234   11.733209786
Mg       3.027076111   13.799505010    3.163888491
Mg       3.000063204   13.818128524    7.458750069
Mg       3.030647494   15.924156870   13.857626251
Mg       3.026148968   15.922846260    9.601487880
Mg       3.029604547   15.921378264    1.033041927
Mg       3.000322503   15.905081686    5.306083074
Mg       0.899136056   13.796311995   13.857587521
Mg       0.895071472   13.800257812    9.598166276
Mg       0.885092126   13.801735497    5.307605123
Mg       0.899964915   13.794886300    1.037517027
Mg       0.899275790   15.923356532   15.984580831
Mg       0.899546512   15.925490367   11.727839291
Mg       0.884832190   15.919978402    7.457087268
Mg       0.895438217   15.921297107    3.166773132
Mg      15.846459848   11.666375718   13.857328290
Mg      11.589598605   11.666130818   13.855436767
Mg      13.719349459   11.666197299   15.984406872
Mg       7.319471352   11.682744345   13.862584183
Mg       9.460343886   11.671327762   15.982586987
Mg       3.029236246   11.672165803   13.861751797
Mg       5.170259139   11.682555581   15.981053506
Mg       0.899804295   11.666641831   15.986846725
Mg      13.719367056    9.534986401   13.857138371
Mg      15.847412460    9.535059180   15.985165183
Mg       9.463810281    9.540319744   13.860865496
Mg      11.594818322    9.536871840   15.982587040
Mg       5.168892182    9.567050830   13.878065171
Mg       7.321391712    9.567283712   15.965417572
Mg       0.895072344    9.537267856   13.861715017
Mg       3.026890588    9.540442468   15.984543111
Mg      15.841436821    7.395202887   13.863580504
Mg      11.606258023    7.395999681   13.862583852
Mg      13.726494424    7.395110264   15.978482998
Mg       9.490804759    7.397899869   15.965417318
Mg       7.336492612    7.412972800   13.894332192
Mg       5.153407693    7.414152685   15.948901485
Mg       3.000533792    7.398225265   13.878211258
Mg       0.885307449    7.396369300   15.981096792
Mg      13.726636349    5.247347488   13.863700568
Mg      15.841565676    5.247477197   15.978568004
Mg       9.490569574    5.245398375   13.878060686
Mg      11.606070846    5.246780074   15.981053109
Mg       5.154244940    5.230722960   13.894540775
Mg       7.337671515    5.229889740   15.948900627
Mg       0.884702666    5.246876634   13.863029074
Mg       3.000083141    5.245535568   15.965338321
Mg      15.847643913    3.107174034   13.857627013
Mg      11.595655652    3.105753398   13.861750190
Mg      13.719966775    3.107394718   15.985288386
Mg       9.463935693    3.103393209   15.984544000
Mg       7.321717525    3.077012509   13.878207532
Mg       3.026276493    3.102778006   13.861488120
Mg       5.169032157    3.076560201   15.965338675
Mg       0.895441395    3.105808532   15.982732201
Mg      13.719781441    0.975663971   13.857587907
Mg      15.846831873    0.975802615   15.984581247
Mg       9.460740689    0.971576531   13.861713440
Mg      11.590112257    0.976325850   15.986847278
Mg       5.170354516    0.961185722   13.863029147
Mg       7.319844437    0.961792403   15.981099126
Mg       0.899689854    0.976211335   13.856154949
Mg       3.029292788    0.971943257   15.982732513
Mg      13.718363434    0.976486471    1.037517432
Mg      13.725245338    0.961577217    5.307604524
Mg      13.723747591    0.971577159    9.598166747
Mg      15.844794168    0.971939904    3.166772497
Mg      15.843491355    0.961316107    7.457087590
Mg      15.848968439    0.976069230   11.727839872
Mg      13.723012293    3.103575371    3.163891211
Mg      13.741651275    3.076541302    7.458747873
Mg      15.844876104    3.106118871    1.033041930
Mg      13.723837249    3.105468633   11.733209036
Mg      15.828611299    3.076798213    5.306084296
Mg      15.846355334    3.102652648    9.601486980
Mg      13.725653855    5.247123868    1.021920636
Mg      13.758153265    5.230148159    5.291934807
Mg      13.741893848    5.245162783    9.628758981
Mg      15.829140915    5.245807911    3.137987739
Mg      15.812395864    5.230301024    7.475616708
Mg      15.843906029    5.246544154   11.743370490
Mg      13.741923366    7.397857988    3.137956449
Mg      13.760095248    7.413518486    7.475351032
Mg      15.843834745    7.396125377    1.021982466
Mg      13.725040092    7.396235185   11.742999892
Mg      15.814553304    7.413775713    5.292036452
Mg      15.829028269    7.398221231    9.628503219
Mg      13.723450522    9.536866150    1.033140483
Mg      13.742276553    9.567283291    5.305967433
Mg      13.722963647    9.540519361    9.600754819
Mg      15.846997872    9.540196156    3.163952120
Mg      15.829451061    9.567279600    7.458468070
Mg      15.844314847    9.537243517   11.732801318
Mg      13.723569518   11.671728905    3.166783794
Mg      13.725522343   11.682675589    7.456629380
Mg      15.849036241   11.666534133    1.037473345
Mg      13.717691126   11.666227347   11.727135600
Mg      15.844188911   11.682726374    5.307479812
Mg      15.844376451   11.671779772    9.597828767
Mg       0.898687657    0.975196474    1.036239638
Mg       0.885706884    3.104604154    3.164680296
Mg       3.028112610    0.962191609    3.164681283
Mg       3.027938986    3.104433578    1.024361148
Mg       0.874043897    0.950521515    5.306139978
Mg       0.860238440    3.082868795    7.457245757
Mg       3.006396170    0.936702208    7.457245241
Mg       2.957127851    3.033596050    5.321023585
Mg       0.901426186    0.977927654    9.597027240
Mg       0.901429441    3.106947341   11.727405728
Mg       3.030431740    0.977932490   11.727404732
Mg       3.046654308    3.123140679    9.580886130
Mg       0.874891158    5.245636456    1.011153284
Mg       0.861319523    7.396546436    3.142988843
Mg       2.958692532    5.264074470    3.097505361
Mg       3.008270611    7.396789366    0.999467825
Mg       0.737934517    5.223674262    5.286848831
Mg       0.742257587    7.422872339    7.485678559
Mg       2.777827919    5.277305082    7.422962445
Mg       2.782576570    7.365352064    5.334498315
Mg       0.860642834    5.245651712    9.620301839
Mg       0.873772435    7.398064672   11.754904542
Mg       3.006139710    5.245735973   11.772561233
Mg       2.955911523    7.380306159    9.675996236
Mg       0.902079592    9.536072507    1.039194291
Mg       0.902009774   11.666334839    3.168026721
Mg       3.048309097    9.520711453    3.183863454
Mg       3.031269579   11.666278758    1.039167776
Mg       0.861678775    9.560287208    5.306417942
Mg       0.874347271   11.694501593    7.458467250
Mg       2.956991952    9.613325461    7.437226987
Mg       3.007916309   11.709460204    5.306368797
Mg       0.885705046    9.541604505    9.601474656
Mg       0.897961800   11.668973481   11.729894881
Mg       3.026159633    9.541532440   11.745732789
Mg       3.026032072   11.683882754    9.601539068
Mg       5.169124118    0.951372774    1.011155208
Mg       5.187580709    3.035169963    3.097503631
Mg       7.320041816    0.937802987    3.142993369
Mg       7.320287258    3.084755080    0.999471413
Mg       5.147195111    0.814387966    5.286850420
Mg       5.200816866    2.854276305    7.422971587
Mg       7.346384504    0.818707381    7.485683068
Mg       7.288863978    2.859028298    5.334520047
Mg       5.169148430    0.937108175    9.620302512
Mg       5.169232732    3.082614186   11.772559005
Mg       7.321544662    0.950251188   11.754902468
Mg       7.303798405    3.032376111    9.675996585
Mg       5.146665836    5.223149787    0.873100100
Mg       5.203619301    7.364198822    2.922313894
Mg       7.287709489    5.280112829    2.922307472
Mg       7.344686784    7.421169095    0.873777909
Mg       5.198701541    5.275189740    9.858282154
Mg       5.145232622    7.422097068   11.888365676
Mg       7.345615016    5.221714711   11.888352835
Mg       7.290916993    7.367410175    9.857997508
Mg       5.170863069    9.560270960    0.999605968
Mg       5.171052094   11.709673933    3.142603728
Mg       7.303041597    9.611549357    3.097486768
Mg       7.321370088   11.693973966    1.011136306
Mg       5.201840490    9.791084829    5.333796022
Mg       5.144606558   11.830845581    7.485558681
Mg       7.289426244    9.795608279    7.421778179
Mg       7.343992395   11.834444570    5.286432914
Mg       5.187305526    9.615036614    9.676673633
Mg       5.168766571   11.695097259   11.754940988
Mg       7.321344171    9.561504142   11.771662666
Mg       7.321493904   11.709551580    9.619725787
Mg       9.459551715    0.978584708    1.039197730
Mg       9.444206375    3.124810918    3.183871745
Mg      11.589823138    0.978514101    3.168026486
Mg      11.589772573    3.107782251    1.039171997
Mg       9.483796985    0.938147248    5.306417010
Mg       9.536851100    3.033451884    7.437226039
Mg      11.618013864    0.950826239    7.458466952
Mg      11.632972821    3.084391212    5.306368062
Mg       9.465096808    0.962192453    9.601473099
Mg       9.465029767    3.102658238   11.745725679
Mg      11.592451116    0.974474392   11.729893611
Mg      11.607386116    3.102532256    9.601537569
Mg       9.483797083    5.247365559    0.999609436
Mg       9.535081368    7.379540132    3.097484595
Mg      11.633203461    5.247553129    3.142606448
Mg      11.617494550    7.397887698    1.011136786
Mg       9.714624926    5.278337754    5.333801070
Mg       9.719169507    7.365920781    7.421781750
Mg      11.754384358    5.221089034    7.485558678
Mg      11.757991255    7.420475585    5.286433464
Mg       9.538554163    5.263812141    9.676661249
Mg       9.485026730    7.397849418   11.771659632
Mg      11.618612356    5.245283272   11.754936731
Mg      11.633084299    7.397998535    9.619727378
Mg       9.463052043    9.539552788    1.024895976
Mg       9.462920344   11.683386313    3.164808359
Mg      11.606899353    9.539421023    3.164809546
Mg      11.591661582   11.668181116    1.036336697
Mg       9.537274663    9.613745441    5.321410724
Mg       9.485148162   11.709813502    7.456604959
Mg      11.633350067    9.561626143    7.456605122
Mg      11.618366374   11.694847553    5.305861733
Mg       9.444068541    9.520557795    9.579006350
Mg       9.459399907   11.665721734   11.726206909
Mg      11.589214430    9.535924681   11.726206536
Mg      11.589247121   11.665753302    9.595957045
O       15.846787990   13.795015491   13.836702835
O       15.844113682   13.800535591    5.290427520
O       15.845664917   13.797766385    9.576698857
O       15.847753032   13.795164840    1.018176990
O       15.846812749   15.923354000   15.964978481
O       15.847826900   15.924363385   11.707832754
O       15.844140905   15.920642925    7.436844113
O       15.845577372   15.922097473    3.149982093
O       13.718505129   13.795053080   15.964894722
O       13.717917115   13.794458284   11.707440538
O       13.723678686   13.800182772    7.436602647
O       13.721760725   13.798287213    3.150056428
O       13.718466416   15.923330931   13.836702864
O       13.724027613   15.920619177    5.290424632
O       13.721239088   15.922185140    9.576703063
O       13.718623827   15.924290331    1.018176989
O       11.588801307   13.794453349   13.836048118
O       11.610831517   13.808132390    5.290579637
O       11.591889258   13.794729319    9.576369174
O       11.591106151   13.797858389    1.017301214
O       11.589406635   15.924164603   15.965765677
O       11.590185578   15.922152005   11.708954553
O       11.610170372   15.914516762    7.437017983
O       11.593366205   15.925826429    3.150484590
O        9.457985116   13.797837276   15.963496821
O        9.457069988   13.794568409   11.710579278
O        9.479669674   13.814305327    7.438554568
O        9.463761703   13.806173918    3.146445225
O        9.457729647   15.922086789   13.839425648
O        9.480722624   15.910082075    5.289152190
O        9.461744413   15.917216396    9.581301153
O        9.458765910   15.925706492    1.016085049
O        7.317706827   13.799842005   13.842072876
O        7.319298174   13.813860181    9.598635003
O        7.328819644   13.845144443    5.279092426
O        7.318624059   13.808280299    0.999623695
O        7.317996530   15.920338661   15.962359799
O        7.328019067   15.882605120    7.445196038
O        7.317758934   15.914654414   11.729482167
O        7.320780620   15.909664250    3.129332441
O        5.171594703   13.800757109   15.962409587
O        5.172006290   13.807433565   11.729679991
O        5.170014800   13.814558277    3.129147923
O        5.162844003   13.843061708    7.445306225
O        5.171650798   15.921005163   13.842378569
O        5.170934748   15.909845775    9.598992940
O        5.171541325   15.914066700    0.999603226
O        5.162282012   15.880276274    5.279189086
O        3.031491231   13.798141044   13.839747697
O        3.028614703   13.805495849    9.581762827
O        3.010363404   13.814157322    5.289192488
O        3.031338964   13.795839993    1.016056236
O        3.031159518   15.922236946   15.963670392
O        3.032286917   15.926203666   11.711410878
O        3.026860571   15.916533718    3.146263771
O        3.011244132   15.909382525    7.439062190
O        0.899585113   13.795151751   15.965912402
O        0.899196823   13.797735007   11.709331401
O        0.897398296   13.795740898    3.150503680
O        0.880909958   13.807734865    7.437279618
O        0.899832178   15.924492102   13.836604079
O        0.898132573   15.926037966    9.577132967
O        0.880419854   15.914078602    5.290717826
O        0.898560751   15.922270168    1.017242593
O       13.717912867   11.665353156   13.836047292
O       15.847628393   11.665955019   15.965765414
O        9.457320486   11.668291540   13.835737489
O       11.590565615   11.667104976   15.963256999
O        5.171904379   11.686498092   13.850204124
O        7.318284187   11.687215538   15.956536809
O        0.899032135   11.667242139   13.839142232
O        3.031560040   11.669890284   15.967031190
O       15.845567811    9.534275744   13.839426633
O       11.591768804    9.533864760   13.835736709
O       13.721314066    9.534533681   15.963494328
O        7.319928712    9.556546900   13.858402778
O        9.462818258    9.539330320   15.958919653
O        3.028152120    9.539156000   13.847931303
O        5.170576206    9.556595175   15.953790856
O        0.897423558    9.535062568   15.967012192
O       13.723339092    7.394255964   13.842071213
O       15.843837936    7.394540243   15.962356418
O        9.480081177    7.396447366   13.858403446
O       11.610741913    7.394821818   15.956538741
O        7.328158307    7.404642804   15.928968217
O        5.162412428    7.405065932   13.890966932
O        0.881247466    7.394658014   13.850329464
O        3.011135799    7.396688151   15.953768882
O       15.844504669    5.248191529   13.842379353
O       11.610020100    5.248434454   13.850199577
O       13.724256153    5.248130770   15.962409756
O        7.328580887    5.238896264   13.890963987
O        9.480127325    5.247091232   15.953788866
O        3.010660907    5.246889427   13.858948024
O        5.162823316    5.239303488   15.928747245
O        0.880315716    5.248156863   15.956661143
O       13.721618684    3.108021549   13.839747594
O       15.845719283    3.107691748   15.963671718
O        9.462642236    3.104657539   13.847926212
O       11.593371934    3.108082844   15.967031204
O        5.170377152    3.087124385   13.858948068
O        7.320171762    3.087603286   15.953768011
O        0.898208319    3.108584460   13.836596841
O        3.027366216    3.103867827   15.958951340
O       15.847956731    0.976368975   13.836605279
O       11.590703299    0.975558812   13.839141658
O       13.718611928    0.976120729   15.965912553
O        7.318123080    0.957722130   13.850325973
O        9.458527627    0.973936475   15.967013200
O        3.032056355    0.974721138   13.836595610
O        5.171626720    0.956788320   15.956664154
O        0.898743517    0.975268267   15.963546413
O       13.719221277    0.973912391    3.150501475
O       13.731237249    0.957389116    7.437280805
O       15.845744360    0.975085971    1.017242198
O       13.721201025    0.975725425   11.709332851
O       15.837593824    0.956890388    5.290716465
O       15.849520477    0.974646101    9.577134752
O       13.719322866    3.107863685    1.016058452
O       13.737686373    3.086828942    5.289195931
O       13.728994757    3.105122841    9.581757884
O       15.840039666    3.103358105    3.146262216
O       15.832913696    3.087706858    7.439062805
O       15.849685051    3.108816540   11.711411284
O       13.738088237    5.246526916    3.129152026
O       15.837579980    5.248069502    0.999600170
O       13.766614112    5.239324162    7.445305016
O       13.730940430    5.248541318   11.729677948
O       15.803828921    5.238762854    5.279192049
O       15.833376164    5.247452383    9.598993310
O       13.731792324    7.395158465    0.999624035
O       13.768695634    7.405302168    5.279092062
O       13.737391632    7.395819991    9.598637269
O       15.833191153    7.397298145    3.129327860
O       15.806164448    7.404506149    7.445198894
O       15.838166359    7.394298908   11.729484545
O       13.729678881    9.540271997    3.146446156
O       13.737838294    9.556138427    7.438556757
O       15.849188299    9.535302924    1.016082014
O       13.718051066    9.533612971   11.710580139
O       15.833613494    9.557195190    5.289152286
O       15.840721734    9.538264820    9.581305360
O       13.721324608   11.667645861    1.017300557
O       13.731644234   11.687308826    5.290581836
O       13.718212993   11.668412551    9.576368323
O       15.849306827   11.669889975    3.150486765
O       15.838026535   11.686655322    7.437015990
O       15.845625222   11.666727517   11.708954604
O        3.025072936    3.101556372    3.144987709
O        3.027758093    0.970680591    1.012854811
O        0.894182068    3.104266779    1.012853128
O        0.894362452    0.970859787    3.147285252
O        3.010095834    3.086547102    7.431083240
O        2.988117142    0.920849442    5.291085453
O        0.844374148    3.064590080    5.291084164
O        0.887179228    0.963652296    7.439880321
O        3.034293190    3.110804685   11.711646688
O        3.034032909    0.974880245    9.576799169
O        0.898387646    3.110541856    9.576801613
O        0.901748720    0.978275956   11.707601315
O        3.004066001    7.389703007    3.121514951
O        2.988207133    5.247223209    0.965223239
O        0.885629213    7.397546833    1.004707477
O        0.843862665    5.247246673    3.107227498
O        2.689107386    7.398080531    7.436903989
O        2.682220142    5.241693905    5.280212169
O        0.773168921    7.422727422    5.261976108
O        0.771054269    5.222218509    7.462399367
O        2.990012671    7.395102124   11.768505024
O        3.013509931    5.257705112    9.596687762
O        0.846948564    7.395191927    9.620717886
O        0.888821144    5.246858263   11.723016543
O        3.031944416   11.672760084    3.151161790
O        3.031873322    9.536287483    1.014095570
O        0.900906528   11.666414469    1.019499515
O        0.897095748    9.536125346    3.151256623
O        2.989668172   11.724931539    7.439076998
O        3.006939098    9.563479674    5.299611030
O        0.886879488   11.682133593    5.289079574
O        0.846231382    9.578516232    7.439046062
O        3.029223250   11.672228044   11.714494672
O        3.030331196    9.538938582    9.581799675
O        0.895505780   11.672466139    9.580939903
O        0.895808961    9.537802293   11.714419289
O        7.313190483    3.080572179    3.121523088
O        7.321017187    0.962113874    1.004717629
O        5.170713366    3.064687024    0.965223778
O        5.170743600    0.920347286    3.107230286
O        7.321588203    2.765555525    7.436946167
O        7.346256157    0.849621705    5.261978358
O        5.165215356    2.758674406    5.280221010
O        5.145761224    0.847502368    7.462397044
O        7.318588670    3.066488054   11.768498095
O        7.318673643    0.923418185    9.620718994
O        5.181193333    3.089960913    9.596689689
O        5.170330040    0.965300178   11.723014598
O        7.327769088    7.404259033    2.812728537
O        7.345522274    5.222621702    0.899229151
O        5.146155056    7.421982191    0.899229867
O        5.163162970    5.239660062    2.811765399
O        7.346121393    7.422583738   11.850585755
O        7.318408320    5.248156178    9.935672409
O        5.171649137    7.394913789    9.935695367
O        5.144707870    5.221168852   11.851217661
O        7.320305354   11.726717438    3.107141327
O        7.320300716    9.580089131    0.965771852
O        5.169757860   11.683453314    1.004636748
O        5.178408357    9.566354019    3.121508108
O        7.345462641   11.801439773    7.461948261
O        7.324866260    9.890512133    5.280360906
O        5.145025361   11.799947793    5.261527636
O        5.169362496    9.884752404    7.435889595
O        7.319661708   11.679353227   11.722180196
O        7.309172399    9.555338761    9.595130613
O        5.172254321   11.723809492    9.620719263
O        5.172366645    9.578188542   11.768179922
O       11.596256301    3.108450982    3.151170566
O       11.589881076    0.977432952    1.019500771
O        9.459777160    3.108381962    1.014101236
O        9.459604285    0.973598900    3.151258144
O       11.648440057    3.066144680    7.439070031
O       11.605641976    0.963362936    5.289077248
O        9.486950707    3.083398794    5.299616632
O        9.502036356    0.922704869    7.439046358
O       11.595717090    3.105737307   11.714490402
O       11.595951300    0.972011632    9.580938502
O        9.462436667    3.106828417    9.581794469
O        9.461275762    0.972312181   11.714414446
O       11.650240988    7.396819172    3.107143841
O       11.606979218    5.246279843    1.004640312
O        9.503615420    7.396815579    0.965771115
O        9.489903133    5.254923202    3.121515592
O       11.724993166    7.421922765    7.461946993
O       11.723484588    5.221480206    5.261530668
O        9.814058400    7.401363322    5.280365252
O        9.808286004    5.245868970    7.435888218
O       11.602871586    7.396198139   11.722179365
O       11.647331554    5.248766023    9.620716635
O        9.478885374    7.385683075    9.595129384
O        9.501713368    5.248879736   11.768171158
O       11.596891444   11.673397659    3.147478761
O       11.596999000    9.539068925    1.013125092
O        9.462544957   11.673505494    1.013124288
O        9.466772016    9.543262225    3.145897087
O       11.604618084   11.681094477    7.439094823
O       11.649359574    9.580197743    5.291007953
O        9.503723036   11.725834027    5.291005977
O        9.482356584    9.558809010    7.429940440
O       11.587899038   11.664434917   11.706382954
O       11.593435707    9.532834562    9.575484250
O        9.456318869   11.669930153    9.575485716
O        9.455972253    9.532490418   11.710006807
